DSS/plot_data/PvList_Caso07.csv
NAME,BUS,BASE_KV,PHASES,BASE_KVA,PF,BASE_KW,GEN_SHAPE,COMMUNITY
PV1FFLX001,BUSLVFLX1295,0.24,1,1,1,1,PVprofile,1
PV1FFLX002,BUSLVFLX1299,0.24,1,1,1,1,PVprofile,1
PV1FFLX003,BUSLVFLX1300,0.24,1,1,1,1,PVprofile,1
PV1FFLX004,BUSLVFLX1328,0.24,1,1,1,1,PVprofile,1
PV1FFLX005,BUSLVFLX1341,0.24,1,1,1,1,PVprofile,1
PV1FFLX006,BUSLVFLX1348,0.24,1,1,1,1,PVprofile,1
PV1FFLX007,BUSLVFLX1353,0.24,1,1,1,1,PVprofile,1
PV1FFLX008,BUSLVFLX1371,0.24,1,1,1,1,PVprofile,1
PV1FFLX009,BUSLVFLX1372,0.24,1,1,1,1,PVprofile,1
PV1FFLX010,BUSLVFLX1378,0.24,1,1,1,1,PVprofile,1
PV1FFLX011,BUSLVFLX1382,0.24,1,1,1,1,PVprofile,1
PV1FFLX012,BUSLVFLX1385,0.24,1,1,1,1,PVprofile,1
PV1FFLX013,BUSLVFLX1386,0.24,1,1,1,1,PVprofile,1
PV1FFLX014,BUSLVFLX1393,0.24,1,1,1,1,PVprofile,1
PV1FFLX015,BUSLVFLX1396,0.24,1,1,1,1,PVprofile,1
PV1FFLX016,BUSLVFLX1303,0.24,1,1,1,1,PVprofile,2
PV1FFLX017,BUSLVFLX1306,0.24,1,1,1,1,PVprofile,2
PV1FFLX018,BUSLVFLX1310,0.24,1,1,1,1,PVprofile,2
PV1FFLX019,BUSLVFLX1339,0.24,1,1,1,1,PVprofile,2
PV1FFLX020,BUSLVFLX1343,0.24,1,1,1,1,PVprofile,2
PV1FFLX021,BUSLVFLX1352,0.24,1,1,1,1,PVprofile,2
PV1FFLX022,BUSLVFLX1367,0.24,1,1,1,1,PVprofile,2
PV1FFLX023,BUSLVFLX1368,0.24,1,1,1,1,PVprofile,2
PV1FFLX024,BUSLVFLX1383,0.24,1,1,1,1,PVprofile,2
PV1FFLX025,BUSLVFLX1397,0.24,1,1,1,1,PVprofile,2
PV1FFLX026,BUSLVFLX1308,0.24,1,1,1,1,PVprofile,3
PV1FFLX027,BUSLVFLX1313,0.24,1,1,1,1,PVprofile,3
PV1FFLX028,BUSLVFLX1319,0.24,1,1,1,1,PVprofile,3
PV1FFLX029,BUSLVFLX1336,0.24,1,1,1,1,PVprofile,3
PV1FFLX030,BUSLVFLX1344,0.24,1,1,1,1,PVprofile,3
PV1FFLX031,BUSLVFLX1347,0.24,1,1,1,1,PVprofile,3
PV1FFLX032,BUSLVFLX1350,0.24,1,1,1,1,PVprofile,3
PV1FFLX033,BUSLVFLX1360,0.24,1,1,1,1,PVprofile,3
PV1FFLX034,BUSLVFLX1374,0.24,1,1,1,1,PVprofile,3
PV1FFLX035,BUSLVFLX1376,0.24,1,1,1,1,PVprofile,3
PV1FFLX036,BUSLVFLX1379,0.24,1,1,1,1,PVprofile,3
PV3FFLX037,BUSLVFLX1209,0.24,3,1,1,1,PVprofile,4
PV3FFLX038,BUSLVFLX1219,0.24,3,1,1,1,PVprofile,4
PV3FFLX039,BUSLVFLX1232,0.24,3,1,1,1,PVprofile,4
PV3FFLX040,BUSLVFLX1236,0.24,3,1,1,1,PVprofile,4
PV3FFLX041,BUSLVFLX1240,0.24,3,1,1,1,PVprofile,4
PV3FFLX042,BUSLVFLX1242,0.24,3,1,1,1,PVprofile,4
PV3FFLX043,BUSLVFLX1246,0.24,3,1,1,1,PVprofile,4
PV3FFLX044,BUSLVFLX1248,0.24,3,1,1,1,PVprofile,4
PV3FFLX045,BUSLVFLX1253,0.24,3,1,1,1,PVprofile,4
PV3FFLX046,BUSLVFLX1255,0.24,3,1,1,1,PVprofile,4
PV3FFLX047,BUSLVFLX1259,0.24,3,1,1,1,PVprofile,4
PV3FFLX048,BUSLVFLX1262,0.24,3,1,1,1,PVprofile,4
PV3FFLX049,BUSLVFLX1264,0.24,3,1,1,1,PVprofile,4
PV3FFLX050,BUSLVFLX1270,0.24,3,1,1,1,PVprofile,4
PV3FFLX051,BUSLVFLX1271,0.24,3,1,1,1,PVprofile,4
PV3FFLX052,BUSLVFLX1272,0.24,3,1,1,1,PVprofile,4
PV1FFLX053,BUSLVFLX548,0.24,1,1,1,1,PVprofile,5
PV1FFLX054,BUSLVFLX696,0.24,1,1,1,1,PVprofile,5
PV1FFLX055,BUSLVFLX281,0.24,1,1,1,1,PVprofile,5
PV1FFLX056,BUSLVFLX480,0.24,1,1,1,1,PVprofile,5
PV1FFLX057,BUSLVFLX438,0.24,1,1,1,1,PVprofile,5
PV3FFLX058,BUSLVFLX1288,0.24,3,1,1,1,PVprofile,5
PV1FFLX059,BUSLVFLX552,0.24,1,1,1,1,PVprofile,5
PV1FFLX060,BUSLVFLX915,0.24,1,1,1,1,PVprofile,5
PV1FFLX061,BUSLVFLX410,0.24,1,1,1,1,PVprofile,5
PV1FFLX062,BUSLVFLX991,0.24,1,1,1,1,PVprofile,5
PV3FFLX063,BUSLVFLX1069,0.24,3,1,1,1,PVprofile,5
PV1FFLX064,BUSLVFLX650,0.24,1,1,1,1,PVprofile,5
PV3FFLX065,BUSLVFLX1278,0.24,3,1,1,1,PVprofile,5
PV1FFLX066,BUSLVFLX748,0.24,1,1,1,1,PVprofile,5
PV1FFLX067,BUSLVFLX116,0.24,1,1,1,1,PVprofile,5
PV3FFLX068,BUSLVFLX1144,0.24,3,1,1,1,PVprofile,5
PV1FFLX069,BUSLVFLX469,0.24,1,1,1,1,PVprofile,5
PV1FFLX070,BUSLVFLX767,0.24,1,1,1,1,PVprofile,5
PV1FFLX071,BUSLVFLX1028,0.24,1,1,1,1,PVprofile,5
PV1FFLX072,BUSLVFLX75,0.24,1,1,1,1,PVprofile,5
PV1FFLX073,BUSLVFLX724,0.24,1,1,1,1,PVprofile,5
PV1FFLX074,BUSLVFLX60,0.24,1,1,1,1,PVprofile,5
PV1FFLX075,BUSLVFLX308,0.24,1,1,1,1,PVprofile,5
PV1FFLX076,BUSLVFLX50,0.24,1,1,1,1,PVprofile,5
PV1FFLX077,BUSLVFLX459,0.24,1,1,1,1,PVprofile,5
PV3FFLX078,BUSLVFLX1122,0.24,3,1,1,1,PVprofile,5
PV1FFLX079,BUSLVFLX109,0.24,1,1,1,1,PVprofile,5
PV1FFLX080,BUSLVFLX397,0.24,1,1,1,1,PVprofile,5
PV1FFLX081,BUSLVFLX901,0.24,1,1,1,1,PVprofile,5
PV1FFLX082,BUSLVFLX749,0.24,1,1,1,1,PVprofile,5
PV1FFLX083,BUSLVFLX228,0.24,1,1,1,1,PVprofile,5
PV3FFLX084,BUSLVFLX1229,0.24,3,1,1,1,PVprofile,5
PV1FFLX085,BUSLVFLX318,0.24,1,1,1,1,PVprofile,5
PV1FFLX086,BUSLVFLX82,0.24,1,1,1,1,PVprofile,5
PV1FFLX087,BUSLVFLX100,0.24,1,1,1,1,PVprofile,5
PV1FFLX088,BUSLVFLX207,0.24,1,1,1,1,PVprofile,5
PV1FFLX089,BUSLVFLX944,0.24,1,1,1,1,PVprofile,5
PV1FFLX090,BUSLVFLX980,0.24,1,1,1,1,PVprofile,5
PV1FFLX091,BUSLVFLX134,0.24,1,1,1,1,PVprofile,5
PV3FFLX092,BUSLVFLX1152,0.24,3,1,1,1,PVprofile,5
PV1FFLX093,BUSLVFLX709,0.24,1,1,1,1,PVprofile,5
PV1FFLX094,BUSLVFLX744,0.24,1,1,1,1,PVprofile,5
PV1FFLX095,BUSLVFLX1049,0.24,1,1,1,1,PVprofile,5
PV1FFLX096,BUSLVFLX964,0.24,1,1,1,1,PVprofile,5
PV1FFLX097,BUSLVFLX231,0.24,1,1,1,1,PVprofile,5
PV1FFLX098,BUSLVFLX829,0.24,1,1,1,1,PVprofile,5
PV1FFLX099,BUSLVFLX976,0.24,1,1,1,1,PVprofile,5
PV3FFLX100,BUSLVFLX1100,0.24,3,1,1,1,PVprofile,5
PV1FFLX101,BUSLVFLX212,0.24,1,1,1,1,PVprofile,5
PV1FFLX102,BUSLVFLX743,0.24,1,1,1,1,PVprofile,5
PV1FFLX103,BUSLVFLX969,0.24,1,1,1,1,PVprofile,5
PV3FFLX104,BUSLVFLX1203,0.24,3,1,1,1,PVprofile,5
PV3FFLX105,BUSLVFLX1134,0.24,3,1,1,1,PVprofile,5
PV1FFLX106,BUSLVFLX920,0.24,1,1,1,1,PVprofile,5
PV1FFLX107,BUSLVFLX111,0.24,1,1,1,1,PVprofile,5
PV1FFLX108,BUSLVFLX422,0.24,1,1,1,1,PVprofile,5
PV1FFLX109,BUSLVFLX1129,0.24,1,1,1,1,PVprofile,5
PV3FFLX110,BUSLVFLX1191,0.24,3,1,1,1,PVprofile,5
PV1FFLX111,BUSLVFLX890,0.24,1,1,1,1,PVprofile,5
PV1FFLX112,BUSLVFLX520,0.24,1,1,1,1,PVprofile,5
PV1FFLX113,BUSLVFLX404,0.24,1,1,1,1,PVprofile,5
PV1FFLX114,BUSLVFLX277,0.24,1,1,1,1,PVprofile,5
PV1FFLX115,BUSLVFLX885,0.24,1,1,1,1,PVprofile,5
PV1FFLX116,BUSLVFLX296,0.24,1,1,1,1,PVprofile,5
PV1FFLX117,BUSLVFLX585,0.24,1,1,1,1,PVprofile,5
PV1FFLX118,BUSLVFLX726,0.24,1,1,1,1,PVprofile,5
PV1FFLX119,BUSLVFLX541,0.24,1,1,1,1,PVprofile,5
PV1FFLX120,BUSLVFLX1053,0.24,1,1,1,1,PVprofile,5
PV1FFLX121,BUSLVFLX668,0.24,1,1,1,1,PVprofile,5
PV1FFLX122,BUSLVFLX897,0.24,1,1,1,1,PVprofile,5
PV1FFLX123,BUSLVFLX375,0.24,1,1,1,1,PVprofile,5
PV1FFLX124,BUSLVFLX643,0.24,1,1,1,1,PVprofile,5
PV3FFLX125,BUSLVFLX1225,0.24,3,1,1,1,PVprofile,5
PV1FFLX126,BUSLVFLX615,0.24,1,1,1,1,PVprofile,5
PV1FFLX127,BUSLVFLX428,0.24,1,1,1,1,PVprofile,5
PV3FFLX128,BUSLVFLX1082,0.24,3,1,1,1,PVprofile,5
PV1FFLX129,BUSLVFLX559,0.24,1,1,1,1,PVprofile,5
PV1FFLX130,BUSLVFLX1057,0.24,1,1,1,1,PVprofile,5
PV1FFLX131,BUSLVFLX669,0.24,1,1,1,1,PVprofile,5
PV1FFLX132,BUSLVFLX259,0.24,1,1,1,1,PVprofile,5
PV1FFLX133,BUSLVFLX226,0.24,1,1,1,1,PVprofile,5
PV1FFLX134,BUSLVFLX932,0.24,1,1,1,1,PVprofile,5
PV1FFLX135,BUSLVFLX1334,0.24,1,1,1,1,PVprofile,5
PV1FFLX136,BUSLVFLX303,0.24,1,1,1,1,PVprofile,5